Package: <%= name %>
Version: 2009.12.12-1
Provides: test-package
Maintainer: Oleg Rodzewich <rodzewich.oleg@gmail.com>
Architecture: all
Section: misc
Description: Short.
 Long
 goes here
 .
 New line.
Depends: java
Pre-Depends: wget (>= 1.0)
Conflicts: crapscript
Recommends: somepackage1, somepackage2
Suggests: supersh-modules
Installed-Size: 3
Priority: optional
